gem5 Simulator System.  http://gem5.org
gem5 is copyrighted software; use the --copyright option for details.

gem5 compiled Dec  4 2019 12:36:04
gem5 started Dec  4 2019 19:49:37
gem5 executing on raphy, pid 2871
command line: gem5/build/X86/gem5.opt -r --stdout-file=log_LRU_10queens.txt gem5/configs/cache_replacement_project/two_level.py /home/irz0002/Projects/compass/cache-replacement/benchmarks/benchmarks/queens --o '-c 10'

{'l1d_size': None, 'l1i_size': None, 'RP': None, 'l2_size': None, 'o': '-c 10'}
<type 'str'>
Global frequency set at 1000000000000 ticks per second
warn: DRAM device capacity (8192 Mbytes) does not match the address range assigned (16384 Mbytes)
0: system.remote_gdb: listening for remote gdb on port 7000
Beginning simulation!
info: Entering event queue @ 0.  Starting simulation...
warn: ignoring syscall access(...)
info: Increasing stack size by one page.
warn: ignoring syscall mprotect(...)
warn: ignoring syscall mprotect(...)
warn: ignoring syscall mprotect(...)
warn: ignoring syscall mprotect(...)
10 queens on a 10x10 board...
...there are 724 solutions
Exiting @ tick 6791876000 because exiting with last active thread context
