
---------- Begin Simulation Statistics ----------
final_tick                                14457607710                       # Number of ticks from beginning of simulation (restored from checkpoints and never reset)
host_inst_rate                                1054186                       # Simulator instruction rate (inst/s)
host_mem_usage                               16918048                       # Number of bytes of host memory used
host_op_rate                                  1146667                       # Simulator op (including micro ops) rate (op/s)
host_seconds                                    10.45                       # Real time elapsed on the host
host_tick_rate                             1382870156                       # Simulator tick rate (ticks/s)
sim_freq                                 1000000000000                       # Frequency of simulated ticks
sim_insts                                    11021172                       # Number of instructions simulated
sim_ops                                      11988137                       # Number of ops (including micro ops) simulated
sim_seconds                                  0.014458                       # Number of seconds simulated
sim_ticks                                 14457607710                       # Number of ticks simulated
system.cpu.Branches                             93812                       # Number of branches fetched
system.cpu.committedInsts                    11021172                       # Number of instructions committed
system.cpu.committedOps                      11988137                       # Number of ops (including micro ops) committed
system.cpu.dtb.rdAccesses                      756425                       # TLB accesses on read requests
system.cpu.dtb.rdMisses                            95                       # TLB misses on read requests
system.cpu.dtb.wrAccesses                      253254                       # TLB accesses on write requests
system.cpu.dtb.wrMisses                            15                       # TLB misses on write requests
system.cpu.idle_fraction                     0.000000                       # Percentage of idle cycles
system.cpu.itb.rdAccesses                           0                       # TLB accesses on read requests
system.cpu.itb.rdMisses                             0                       # TLB misses on read requests
system.cpu.itb.wrAccesses                    14490383                       # TLB accesses on write requests
system.cpu.itb.wrMisses                           124                       # TLB misses on write requests
system.cpu.not_idle_fraction                 1.000000                       # Percentage of non-idle cycles
system.cpu.numCycles                         31774962                       # number of cpu cycles simulated
system.cpu.numWorkItemsCompleted                    0                       # number of work items this cpu completed
system.cpu.numWorkItemsStarted                      0                       # number of work items this cpu started
system.cpu.num_busy_cycles               31774961.997802                       # Number of busy cycles
system.cpu.num_cc_register_reads              3570641                       # number of times the CC registers were read
system.cpu.num_cc_register_writes            11765069                       # number of times the CC registers were written
system.cpu.num_conditional_control_insts        84146                       # number of instructions that are conditional controls
system.cpu.num_fp_alu_accesses                  14802                       # Number of float alu accesses
system.cpu.num_fp_insts                         14802                       # number of float instructions
system.cpu.num_fp_register_reads                21972                       # number of times the floating registers were read
system.cpu.num_fp_register_writes               11653                       # number of times the floating registers were written
system.cpu.num_func_calls                        3814                       # number of times a function call or return occured
system.cpu.num_idle_cycles                   0.002198                       # Number of idle cycles
system.cpu.num_int_alu_accesses              11974901                       # Number of integer alu accesses
system.cpu.num_int_insts                     11974901                       # number of integer instructions
system.cpu.num_int_register_reads            27555891                       # number of times the integer registers were read
system.cpu.num_int_register_writes           11629469                       # number of times the integer registers were written
system.cpu.num_load_insts                      756387                       # Number of load instructions
system.cpu.num_mem_refs                       1009638                       # number of memory refs
system.cpu.num_store_insts                     253251                       # Number of store instructions
system.cpu.num_vec_alu_accesses                     0                       # Number of vector alu accesses
system.cpu.num_vec_insts                            0                       # number of vector instructions
system.cpu.num_vec_register_reads                   0                       # number of times the vector registers were read
system.cpu.num_vec_register_writes                  0                       # number of times the vector registers were written
system.cpu.op_class::No_OpClass                  5366      0.04%      0.04% # Class of executed instruction
system.cpu.op_class::IntAlu                  10961780     91.44%     91.48% # Class of executed instruction
system.cpu.op_class::IntMult                       24      0.00%     91.48% # Class of executed instruction
system.cpu.op_class::IntDiv                      1866      0.02%     91.50% # Class of executed instruction
system.cpu.op_class::FloatAdd                     469      0.00%     91.50% # Class of executed instruction
system.cpu.op_class::FloatCmp                       0      0.00%     91.50% # Class of executed instruction
system.cpu.op_class::FloatCvt                     400      0.00%     91.51% # Class of executed instruction
system.cpu.op_class::FloatMult                      0      0.00%     91.51% # Class of executed instruction
system.cpu.op_class::FloatMultAcc                   0      0.00%     91.51% # Class of executed instruction
system.cpu.op_class::FloatDiv                       0      0.00%     91.51% # Class of executed instruction
system.cpu.op_class::FloatMisc                      0      0.00%     91.51% # Class of executed instruction
system.cpu.op_class::FloatSqrt                      0      0.00%     91.51% # Class of executed instruction
system.cpu.op_class::SimdAdd                      864      0.01%     91.51% # Class of executed instruction
system.cpu.op_class::SimdAddAcc                     0      0.00%     91.51% # Class of executed instruction
system.cpu.op_class::SimdAlu                     2216      0.02%     91.53% # Class of executed instruction
system.cpu.op_class::SimdCmp                       34      0.00%     91.53% # Class of executed instruction
system.cpu.op_class::SimdCvt                     2592      0.02%     91.55% # Class of executed instruction
system.cpu.op_class::SimdMisc                    2444      0.02%     91.57% # Class of executed instruction
system.cpu.op_class::SimdMult                       0      0.00%     91.57% # Class of executed instruction
system.cpu.op_class::SimdMultAcc                    0      0.00%     91.57% # Class of executed instruction
system.cpu.op_class::SimdShift                    444      0.00%     91.58% # Class of executed instruction
system.cpu.op_class::SimdShiftAcc                   0      0.00%     91.58% # Class of executed instruction
system.cpu.op_class::SimdDiv                        0      0.00%     91.58% # Class of executed instruction
system.cpu.op_class::SimdSqrt                       0      0.00%     91.58% # Class of executed instruction
system.cpu.op_class::SimdFloatAdd                   0      0.00%     91.58% # Class of executed instruction
system.cpu.op_class::SimdFloatAlu                   0      0.00%     91.58% # Class of executed instruction
system.cpu.op_class::SimdFloatCmp                   0      0.00%     91.58% # Class of executed instruction
system.cpu.op_class::SimdFloatCvt                   0      0.00%     91.58% # Class of executed instruction
system.cpu.op_class::SimdFloatDiv                   0      0.00%     91.58% # Class of executed instruction
system.cpu.op_class::SimdFloatMisc                  0      0.00%     91.58% # Class of executed instruction
system.cpu.op_class::SimdFloatMult                  0      0.00%     91.58% # Class of executed instruction
system.cpu.op_class::SimdFloatMultAcc               0      0.00%     91.58% # Class of executed instruction
system.cpu.op_class::SimdFloatSqrt                  0      0.00%     91.58% # Class of executed instruction
system.cpu.op_class::SimdReduceAdd                  0      0.00%     91.58% # Class of executed instruction
system.cpu.op_class::SimdReduceAlu                  0      0.00%     91.58% # Class of executed instruction
system.cpu.op_class::SimdReduceCmp                  0      0.00%     91.58% # Class of executed instruction
system.cpu.op_class::SimdFloatReduceAdd             0      0.00%     91.58% # Class of executed instruction
system.cpu.op_class::SimdFloatReduceCmp             0      0.00%     91.58% # Class of executed instruction
system.cpu.op_class::SimdAes                        0      0.00%     91.58% # Class of executed instruction
system.cpu.op_class::SimdAesMix                     0      0.00%     91.58% # Class of executed instruction
system.cpu.op_class::SimdSha1Hash                   0      0.00%     91.58% # Class of executed instruction
system.cpu.op_class::SimdSha1Hash2                  0      0.00%     91.58% # Class of executed instruction
system.cpu.op_class::SimdSha256Hash                 0      0.00%     91.58% # Class of executed instruction
system.cpu.op_class::SimdSha256Hash2                0      0.00%     91.58% # Class of executed instruction
system.cpu.op_class::SimdShaSigma2                  0      0.00%     91.58% # Class of executed instruction
system.cpu.op_class::SimdShaSigma3                  0      0.00%     91.58% # Class of executed instruction
system.cpu.op_class::SimdPredAlu                    0      0.00%     91.58% # Class of executed instruction
system.cpu.op_class::MemRead                   752941      6.28%     97.86% # Class of executed instruction
system.cpu.op_class::MemWrite                  251945      2.10%     99.96% # Class of executed instruction
system.cpu.op_class::FloatMemRead                3446      0.03%     99.99% # Class of executed instruction
system.cpu.op_class::FloatMemWrite               1306      0.01%    100.00% # Class of executed instruction
system.cpu.op_class::IprAccess                      0      0.00%    100.00% # Class of executed instruction
system.cpu.op_class::InstPrefetch                   0      0.00%    100.00% # Class of executed instruction
system.cpu.op_class::total                   11988137                       # Class of executed instruction
system.cpu.workload.numSyscalls                    47                       # Number of system calls
system.l2bus.snoop_filter.hit_multi_requests            0                       # Number of requests hitting in the snoop filter with multiple (>1) holders of the requested data.
system.l2bus.snoop_filter.hit_multi_snoops            0                       # Number of snoops hitting in the snoop filter with multiple (>1) holders of the requested data.
system.l2bus.snoop_filter.hit_single_requests         3632                       # Number of requests hitting in the snoop filter with a single holder of the requested data.
system.l2bus.snoop_filter.hit_single_snoops            7                       # Number of snoops hitting in the snoop filter with a single holder of the requested data.
system.l2bus.snoop_filter.tot_requests           9218                       # Total number of requests made to the snoop filter.
system.l2bus.snoop_filter.tot_snoops                7                       # Total number of snoops made to the snoop filter.
system.membus.snoop_filter.hit_multi_requests            0                       # Number of requests hitting in the snoop filter with multiple (>1) holders of the requested data.
system.membus.snoop_filter.hit_multi_snoops            0                       # Number of snoops hitting in the snoop filter with multiple (>1) holders of the requested data.
system.membus.snoop_filter.hit_single_requests           13                       # Number of requests hitting in the snoop filter with a single holder of the requested data.
system.membus.snoop_filter.hit_single_snoops            0                       # Number of snoops hitting in the snoop filter with a single holder of the requested data.
system.membus.snoop_filter.tot_requests          4703                       # Total number of requests made to the snoop filter.
system.membus.snoop_filter.tot_snoops               0                       # Total number of snoops made to the snoop filter.
system.membus.pwrStateResidencyTicks::UNDEFINED  14457607710                       # Cumulative time (in ticks) in various power states
system.membus.trans_dist::ReadResp               4132                       # Transaction distribution
system.membus.trans_dist::WritebackDirty            2                       # Transaction distribution
system.membus.trans_dist::CleanEvict               11                       # Transaction distribution
system.membus.trans_dist::ReadExReq               558                       # Transaction distribution
system.membus.trans_dist::ReadExResp              558                       # Transaction distribution
system.membus.trans_dist::ReadSharedReq          4132                       # Transaction distribution
system.membus.pkt_count_system.l2cache.mem_side::system.mem_ctrl.port         9393                       # Packet count per connected master and slave (bytes)
system.membus.pkt_count_system.l2cache.mem_side::total         9393                       # Packet count per connected master and slave (bytes)
system.membus.pkt_count::total                   9393                       # Packet count per connected master and slave (bytes)
system.membus.pkt_size_system.l2cache.mem_side::system.mem_ctrl.port       300288                       # Cumulative packet size per connected master and slave (bytes)
system.membus.pkt_size_system.l2cache.mem_side::total       300288                       # Cumulative packet size per connected master and slave (bytes)
system.membus.pkt_size::total                  300288                       # Cumulative packet size per connected master and slave (bytes)
system.membus.snoops                                0                       # Total snoops (count)
system.membus.snoopTraffic                          0                       # Total snoop traffic (bytes)
system.membus.snoop_fanout::samples              4690                       # Request fanout histogram
system.membus.snoop_fanout::mean                    0                       # Request fanout histogram
system.membus.snoop_fanout::stdev                   0                       # Request fanout histogram
system.membus.snoop_fanout::underflows              0      0.00%      0.00% # Request fanout histogram
system.membus.snoop_fanout::0                    4690    100.00%    100.00% # Request fanout histogram
system.membus.snoop_fanout::1                       0      0.00%    100.00% # Request fanout histogram
system.membus.snoop_fanout::overflows               0      0.00%    100.00% # Request fanout histogram
system.membus.snoop_fanout::min_value               0                       # Request fanout histogram
system.membus.snoop_fanout::max_value               0                       # Request fanout histogram
system.membus.snoop_fanout::total                4690                       # Request fanout histogram
system.membus.reqLayer2.occupancy             2143505                       # Layer occupancy (ticks)
system.membus.reqLayer2.utilization               0.0                       # Layer utilization (%)
system.membus.respLayer0.occupancy           12320550                       # Layer occupancy (ticks)
system.membus.respLayer0.utilization              0.1                       # Layer utilization (%)
system.l2bus.pwrStateResidencyTicks::UNDEFINED  14457607710                       # Cumulative time (in ticks) in various power states
system.l2bus.trans_dist::ReadResp                4937                       # Transaction distribution
system.l2bus.trans_dist::WritebackDirty           836                       # Transaction distribution
system.l2bus.trans_dist::CleanEvict              2812                       # Transaction distribution
system.l2bus.trans_dist::ReadExReq                649                       # Transaction distribution
system.l2bus.trans_dist::ReadExResp               649                       # Transaction distribution
system.l2bus.trans_dist::ReadSharedReq           4937                       # Transaction distribution
system.l2bus.pkt_count_system.cpu.icache.mem_side::system.l2cache.cpu_side         3984                       # Packet count per connected master and slave (bytes)
system.l2bus.pkt_count_system.cpu.dcache.mem_side::system.l2cache.cpu_side        10820                       # Packet count per connected master and slave (bytes)
system.l2bus.pkt_count::total                   14804                       # Packet count per connected master and slave (bytes)
system.l2bus.pkt_size_system.cpu.icache.mem_side::system.l2cache.cpu_side       104832                       # Cumulative packet size per connected master and slave (bytes)
system.l2bus.pkt_size_system.cpu.dcache.mem_side::system.l2cache.cpu_side       306048                       # Cumulative packet size per connected master and slave (bytes)
system.l2bus.pkt_size::total                   410880                       # Cumulative packet size per connected master and slave (bytes)
system.l2bus.snoops                                16                       # Total snoops (count)
system.l2bus.snoopTraffic                         128                       # Total snoop traffic (bytes)
system.l2bus.snoop_fanout::samples               5602                       # Request fanout histogram
system.l2bus.snoop_fanout::mean              0.001250                       # Request fanout histogram
system.l2bus.snoop_fanout::stdev             0.035330                       # Request fanout histogram
system.l2bus.snoop_fanout::underflows               0      0.00%      0.00% # Request fanout histogram
system.l2bus.snoop_fanout::0                     5595     99.88%     99.88% # Request fanout histogram
system.l2bus.snoop_fanout::1                        7      0.12%    100.00% # Request fanout histogram
system.l2bus.snoop_fanout::2                        0      0.00%    100.00% # Request fanout histogram
system.l2bus.snoop_fanout::overflows                0      0.00%    100.00% # Request fanout histogram
system.l2bus.snoop_fanout::min_value                0                       # Request fanout histogram
system.l2bus.snoop_fanout::max_value                1                       # Request fanout histogram
system.l2bus.snoop_fanout::total                 5602                       # Request fanout histogram
system.l2bus.respLayer1.occupancy             5389020                       # Layer occupancy (ticks)
system.l2bus.respLayer1.utilization               0.0                       # Layer utilization (%)
system.l2bus.reqLayer0.occupancy              4953130                       # Layer occupancy (ticks)
system.l2bus.reqLayer0.utilization                0.0                       # Layer utilization (%)
system.l2bus.respLayer0.occupancy             2235870                       # Layer occupancy (ticks)
system.l2bus.respLayer0.utilization               0.0                       # Layer utilization (%)
system.clk_domain.clock                           455                       # Clock period in ticks
system.clk_domain.voltage_domain.voltage            1                       # Voltage in Volts
system.cpu.numPwrStateTransitions                   1                       # Number of power state transitions
system.cpu.pwrStateResidencyTicks::ON     14457607710                       # Cumulative time (in ticks) in various power states
system.cpu.icache.pwrStateResidencyTicks::UNDEFINED  14457607710                       # Cumulative time (in ticks) in various power states
system.cpu.icache.demand_hits::.cpu.inst     14488745                       # number of demand (read+write) hits
system.cpu.icache.demand_hits::total         14488745                       # number of demand (read+write) hits
system.cpu.icache.overall_hits::.cpu.inst     14488745                       # number of overall hits
system.cpu.icache.overall_hits::total        14488745                       # number of overall hits
system.cpu.icache.demand_misses::.cpu.inst         1638                       # number of demand (read+write) misses
system.cpu.icache.demand_misses::total           1638                       # number of demand (read+write) misses
system.cpu.icache.overall_misses::.cpu.inst         1638                       # number of overall misses
system.cpu.icache.overall_misses::total          1638                       # number of overall misses
system.cpu.icache.demand_miss_latency::.cpu.inst    107332680                       # number of demand (read+write) miss cycles
system.cpu.icache.demand_miss_latency::total    107332680                       # number of demand (read+write) miss cycles
system.cpu.icache.overall_miss_latency::.cpu.inst    107332680                       # number of overall miss cycles
system.cpu.icache.overall_miss_latency::total    107332680                       # number of overall miss cycles
system.cpu.icache.demand_accesses::.cpu.inst     14490383                       # number of demand (read+write) accesses
system.cpu.icache.demand_accesses::total     14490383                       # number of demand (read+write) accesses
system.cpu.icache.overall_accesses::.cpu.inst     14490383                       # number of overall (read+write) accesses
system.cpu.icache.overall_accesses::total     14490383                       # number of overall (read+write) accesses
system.cpu.icache.demand_miss_rate::.cpu.inst     0.000113                       # miss rate for demand accesses
system.cpu.icache.demand_miss_rate::total     0.000113                       # miss rate for demand accesses
system.cpu.icache.overall_miss_rate::.cpu.inst     0.000113                       # miss rate for overall accesses
system.cpu.icache.overall_miss_rate::total     0.000113                       # miss rate for overall accesses
system.cpu.icache.demand_avg_miss_latency::.cpu.inst 65526.666667                       # average overall miss latency
system.cpu.icache.demand_avg_miss_latency::total 65526.666667                       # average overall miss latency
system.cpu.icache.overall_avg_miss_latency::.cpu.inst 65526.666667                       # average overall miss latency
system.cpu.icache.overall_avg_miss_latency::total 65526.666667                       # average overall miss latency
system.cpu.icache.blocked_cycles::no_mshrs            0                       # number of cycles access was blocked
system.cpu.icache.blocked_cycles::no_targets            0                       # number of cycles access was blocked
system.cpu.icache.blocked::no_mshrs                 0                       # number of cycles access was blocked
system.cpu.icache.blocked::no_targets               0                       # number of cycles access was blocked
system.cpu.icache.avg_blocked_cycles::no_mshrs          nan                       # average number of cycles each access was blocked
system.cpu.icache.avg_blocked_cycles::no_targets          nan                       # average number of cycles each access was blocked
system.cpu.icache.demand_mshr_misses::.cpu.inst         1638                       # number of demand (read+write) MSHR misses
system.cpu.icache.demand_mshr_misses::total         1638                       # number of demand (read+write) MSHR misses
system.cpu.icache.overall_mshr_misses::.cpu.inst         1638                       # number of overall MSHR misses
system.cpu.icache.overall_mshr_misses::total         1638                       # number of overall MSHR misses
system.cpu.icache.demand_mshr_miss_latency::.cpu.inst    105842100                       # number of demand (read+write) MSHR miss cycles
system.cpu.icache.demand_mshr_miss_latency::total    105842100                       # number of demand (read+write) MSHR miss cycles
system.cpu.icache.overall_mshr_miss_latency::.cpu.inst    105842100                       # number of overall MSHR miss cycles
system.cpu.icache.overall_mshr_miss_latency::total    105842100                       # number of overall MSHR miss cycles
system.cpu.icache.demand_mshr_miss_rate::.cpu.inst     0.000113                       # mshr miss rate for demand accesses
system.cpu.icache.demand_mshr_miss_rate::total     0.000113                       # mshr miss rate for demand accesses
system.cpu.icache.overall_mshr_miss_rate::.cpu.inst     0.000113                       # mshr miss rate for overall accesses
system.cpu.icache.overall_mshr_miss_rate::total     0.000113                       # mshr miss rate for overall accesses
system.cpu.icache.demand_avg_mshr_miss_latency::.cpu.inst 64616.666667                       # average overall mshr miss latency
system.cpu.icache.demand_avg_mshr_miss_latency::total 64616.666667                       # average overall mshr miss latency
system.cpu.icache.overall_avg_mshr_miss_latency::.cpu.inst 64616.666667                       # average overall mshr miss latency
system.cpu.icache.overall_avg_mshr_miss_latency::total 64616.666667                       # average overall mshr miss latency
system.cpu.icache.replacements                    708                       # number of replacements
system.cpu.icache.ReadReq_hits::.cpu.inst     14488745                       # number of ReadReq hits
system.cpu.icache.ReadReq_hits::total        14488745                       # number of ReadReq hits
system.cpu.icache.ReadReq_misses::.cpu.inst         1638                       # number of ReadReq misses
system.cpu.icache.ReadReq_misses::total          1638                       # number of ReadReq misses
system.cpu.icache.ReadReq_miss_latency::.cpu.inst    107332680                       # number of ReadReq miss cycles
system.cpu.icache.ReadReq_miss_latency::total    107332680                       # number of ReadReq miss cycles
system.cpu.icache.ReadReq_accesses::.cpu.inst     14490383                       # number of ReadReq accesses(hits+misses)
system.cpu.icache.ReadReq_accesses::total     14490383                       # number of ReadReq accesses(hits+misses)
system.cpu.icache.ReadReq_miss_rate::.cpu.inst     0.000113                       # miss rate for ReadReq accesses
system.cpu.icache.ReadReq_miss_rate::total     0.000113                       # miss rate for ReadReq accesses
system.cpu.icache.ReadReq_avg_miss_latency::.cpu.inst 65526.666667                       # average ReadReq miss latency
system.cpu.icache.ReadReq_avg_miss_latency::total 65526.666667                       # average ReadReq miss latency
system.cpu.icache.ReadReq_mshr_misses::.cpu.inst         1638                       # number of ReadReq MSHR misses
system.cpu.icache.ReadReq_mshr_misses::total         1638                       # number of ReadReq MSHR misses
system.cpu.icache.ReadReq_mshr_miss_latency::.cpu.inst    105842100                       # number of ReadReq MSHR miss cycles
system.cpu.icache.ReadReq_mshr_miss_latency::total    105842100                       # number of ReadReq MSHR miss cycles
system.cpu.icache.ReadReq_mshr_miss_rate::.cpu.inst     0.000113                       # mshr miss rate for ReadReq accesses
system.cpu.icache.ReadReq_mshr_miss_rate::total     0.000113                       # mshr miss rate for ReadReq accesses
system.cpu.icache.ReadReq_avg_mshr_miss_latency::.cpu.inst 64616.666667                       # average ReadReq mshr miss latency
system.cpu.icache.ReadReq_avg_mshr_miss_latency::total 64616.666667                       # average ReadReq mshr miss latency
system.cpu.icache.tags.pwrStateResidencyTicks::UNDEFINED  14457607710                       # Cumulative time (in ticks) in various power states
system.cpu.icache.tags.tagsinuse           848.889247                       # Cycle average of tags in use
system.cpu.icache.tags.total_refs            14490383                       # Total number of references to valid blocks.
system.cpu.icache.tags.sampled_refs              1638                       # Sample count of references to valid blocks.
system.cpu.icache.tags.avg_refs           8846.387668                       # Average number of references to valid blocks.
system.cpu.icache.tags.warmup_cycle             80535                       # Cycle when the warmup percentage was hit.
system.cpu.icache.tags.occ_blocks::.cpu.inst   848.889247                       # Average occupied blocks per requestor
system.cpu.icache.tags.occ_percent::.cpu.inst     0.828993                       # Average percentage of cache occupancy
system.cpu.icache.tags.occ_percent::total     0.828993                       # Average percentage of cache occupancy
system.cpu.icache.tags.occ_task_id_blocks::1024          930                       # Occupied blocks per task id
system.cpu.icache.tags.age_task_id_blocks_1024::0           92                       # Occupied blocks per task id
system.cpu.icache.tags.age_task_id_blocks_1024::1          154                       # Occupied blocks per task id
system.cpu.icache.tags.age_task_id_blocks_1024::2           51                       # Occupied blocks per task id
system.cpu.icache.tags.age_task_id_blocks_1024::4          633                       # Occupied blocks per task id
system.cpu.icache.tags.occ_task_id_percent::1024     0.908203                       # Percentage of cache occupancy per task id
system.cpu.icache.tags.tag_accesses          28982404                       # Number of tag accesses
system.cpu.icache.tags.data_accesses         28982404                       # Number of data accesses
system.cpu.dtb.walker.pwrStateResidencyTicks::UNDEFINED  14457607710                       # Cumulative time (in ticks) in various power states
system.cpu.interrupts.clk_domain.clock           7280                       # Clock period in ticks
system.cpu.itb.walker.pwrStateResidencyTicks::UNDEFINED  14457607710                       # Cumulative time (in ticks) in various power states
system.cpu.dcache.pwrStateResidencyTicks::UNDEFINED  14457607710                       # Cumulative time (in ticks) in various power states
system.cpu.dcache.demand_hits::.cpu.data      1005731                       # number of demand (read+write) hits
system.cpu.dcache.demand_hits::total          1005731                       # number of demand (read+write) hits
system.cpu.dcache.overall_hits::.cpu.data      1005731                       # number of overall hits
system.cpu.dcache.overall_hits::total         1005731                       # number of overall hits
system.cpu.dcache.demand_misses::.cpu.data         3948                       # number of demand (read+write) misses
system.cpu.dcache.demand_misses::total           3948                       # number of demand (read+write) misses
system.cpu.dcache.overall_misses::.cpu.data         3948                       # number of overall misses
system.cpu.dcache.overall_misses::total          3948                       # number of overall misses
system.cpu.dcache.demand_miss_latency::.cpu.data    250387410                       # number of demand (read+write) miss cycles
system.cpu.dcache.demand_miss_latency::total    250387410                       # number of demand (read+write) miss cycles
system.cpu.dcache.overall_miss_latency::.cpu.data    250387410                       # number of overall miss cycles
system.cpu.dcache.overall_miss_latency::total    250387410                       # number of overall miss cycles
system.cpu.dcache.demand_accesses::.cpu.data      1009679                       # number of demand (read+write) accesses
system.cpu.dcache.demand_accesses::total      1009679                       # number of demand (read+write) accesses
system.cpu.dcache.overall_accesses::.cpu.data      1009679                       # number of overall (read+write) accesses
system.cpu.dcache.overall_accesses::total      1009679                       # number of overall (read+write) accesses
system.cpu.dcache.demand_miss_rate::.cpu.data     0.003910                       # miss rate for demand accesses
system.cpu.dcache.demand_miss_rate::total     0.003910                       # miss rate for demand accesses
system.cpu.dcache.overall_miss_rate::.cpu.data     0.003910                       # miss rate for overall accesses
system.cpu.dcache.overall_miss_rate::total     0.003910                       # miss rate for overall accesses
system.cpu.dcache.demand_avg_miss_latency::.cpu.data 63421.329787                       # average overall miss latency
system.cpu.dcache.demand_avg_miss_latency::total 63421.329787                       # average overall miss latency
system.cpu.dcache.overall_avg_miss_latency::.cpu.data 63421.329787                       # average overall miss latency
system.cpu.dcache.overall_avg_miss_latency::total 63421.329787                       # average overall miss latency
system.cpu.dcache.blocked_cycles::no_mshrs            0                       # number of cycles access was blocked
system.cpu.dcache.blocked_cycles::no_targets            0                       # number of cycles access was blocked
system.cpu.dcache.blocked::no_mshrs                 0                       # number of cycles access was blocked
system.cpu.dcache.blocked::no_targets               0                       # number of cycles access was blocked
system.cpu.dcache.avg_blocked_cycles::no_mshrs          nan                       # average number of cycles each access was blocked
system.cpu.dcache.avg_blocked_cycles::no_targets          nan                       # average number of cycles each access was blocked
system.cpu.dcache.writebacks::.writebacks          834                       # number of writebacks
system.cpu.dcache.writebacks::total               834                       # number of writebacks
system.cpu.dcache.demand_mshr_misses::.cpu.data         3948                       # number of demand (read+write) MSHR misses
system.cpu.dcache.demand_mshr_misses::total         3948                       # number of demand (read+write) MSHR misses
system.cpu.dcache.overall_mshr_misses::.cpu.data         3948                       # number of overall MSHR misses
system.cpu.dcache.overall_mshr_misses::total         3948                       # number of overall MSHR misses
system.cpu.dcache.demand_mshr_miss_latency::.cpu.data    246794730                       # number of demand (read+write) MSHR miss cycles
system.cpu.dcache.demand_mshr_miss_latency::total    246794730                       # number of demand (read+write) MSHR miss cycles
system.cpu.dcache.overall_mshr_miss_latency::.cpu.data    246794730                       # number of overall MSHR miss cycles
system.cpu.dcache.overall_mshr_miss_latency::total    246794730                       # number of overall MSHR miss cycles
system.cpu.dcache.demand_mshr_miss_rate::.cpu.data     0.003910                       # mshr miss rate for demand accesses
system.cpu.dcache.demand_mshr_miss_rate::total     0.003910                       # mshr miss rate for demand accesses
system.cpu.dcache.overall_mshr_miss_rate::.cpu.data     0.003910                       # mshr miss rate for overall accesses
system.cpu.dcache.overall_mshr_miss_rate::total     0.003910                       # mshr miss rate for overall accesses
system.cpu.dcache.demand_avg_mshr_miss_latency::.cpu.data 62511.329787                       # average overall mshr miss latency
system.cpu.dcache.demand_avg_mshr_miss_latency::total 62511.329787                       # average overall mshr miss latency
system.cpu.dcache.overall_avg_mshr_miss_latency::.cpu.data 62511.329787                       # average overall mshr miss latency
system.cpu.dcache.overall_avg_mshr_miss_latency::total 62511.329787                       # average overall mshr miss latency
system.cpu.dcache.replacements                   2924                       # number of replacements
system.cpu.dcache.ReadReq_hits::.cpu.data       753126                       # number of ReadReq hits
system.cpu.dcache.ReadReq_hits::total          753126                       # number of ReadReq hits
system.cpu.dcache.ReadReq_misses::.cpu.data         3299                       # number of ReadReq misses
system.cpu.dcache.ReadReq_misses::total          3299                       # number of ReadReq misses
system.cpu.dcache.ReadReq_miss_latency::.cpu.data    210640430                       # number of ReadReq miss cycles
system.cpu.dcache.ReadReq_miss_latency::total    210640430                       # number of ReadReq miss cycles
system.cpu.dcache.ReadReq_accesses::.cpu.data       756425                       # number of ReadReq accesses(hits+misses)
system.cpu.dcache.ReadReq_accesses::total       756425                       # number of ReadReq accesses(hits+misses)
system.cpu.dcache.ReadReq_miss_rate::.cpu.data     0.004361                       # miss rate for ReadReq accesses
system.cpu.dcache.ReadReq_miss_rate::total     0.004361                       # miss rate for ReadReq accesses
system.cpu.dcache.ReadReq_avg_miss_latency::.cpu.data 63849.781752                       # average ReadReq miss latency
system.cpu.dcache.ReadReq_avg_miss_latency::total 63849.781752                       # average ReadReq miss latency
system.cpu.dcache.ReadReq_mshr_misses::.cpu.data         3299                       # number of ReadReq MSHR misses
system.cpu.dcache.ReadReq_mshr_misses::total         3299                       # number of ReadReq MSHR misses
system.cpu.dcache.ReadReq_mshr_miss_latency::.cpu.data    207638340                       # number of ReadReq MSHR miss cycles
system.cpu.dcache.ReadReq_mshr_miss_latency::total    207638340                       # number of ReadReq MSHR miss cycles
system.cpu.dcache.ReadReq_mshr_miss_rate::.cpu.data     0.004361                       # mshr miss rate for ReadReq accesses
system.cpu.dcache.ReadReq_mshr_miss_rate::total     0.004361                       # mshr miss rate for ReadReq accesses
system.cpu.dcache.ReadReq_avg_mshr_miss_latency::.cpu.data 62939.781752                       # average ReadReq mshr miss latency
system.cpu.dcache.ReadReq_avg_mshr_miss_latency::total 62939.781752                       # average ReadReq mshr miss latency
system.cpu.dcache.WriteReq_hits::.cpu.data       252605                       # number of WriteReq hits
system.cpu.dcache.WriteReq_hits::total         252605                       # number of WriteReq hits
system.cpu.dcache.WriteReq_misses::.cpu.data          649                       # number of WriteReq misses
system.cpu.dcache.WriteReq_misses::total          649                       # number of WriteReq misses
system.cpu.dcache.WriteReq_miss_latency::.cpu.data     39746980                       # number of WriteReq miss cycles
system.cpu.dcache.WriteReq_miss_latency::total     39746980                       # number of WriteReq miss cycles
system.cpu.dcache.WriteReq_accesses::.cpu.data       253254                       # number of WriteReq accesses(hits+misses)
system.cpu.dcache.WriteReq_accesses::total       253254                       # number of WriteReq accesses(hits+misses)
system.cpu.dcache.WriteReq_miss_rate::.cpu.data     0.002563                       # miss rate for WriteReq accesses
system.cpu.dcache.WriteReq_miss_rate::total     0.002563                       # miss rate for WriteReq accesses
system.cpu.dcache.WriteReq_avg_miss_latency::.cpu.data 61243.420647                       # average WriteReq miss latency
system.cpu.dcache.WriteReq_avg_miss_latency::total 61243.420647                       # average WriteReq miss latency
system.cpu.dcache.WriteReq_mshr_misses::.cpu.data          649                       # number of WriteReq MSHR misses
system.cpu.dcache.WriteReq_mshr_misses::total          649                       # number of WriteReq MSHR misses
system.cpu.dcache.WriteReq_mshr_miss_latency::.cpu.data     39156390                       # number of WriteReq MSHR miss cycles
system.cpu.dcache.WriteReq_mshr_miss_latency::total     39156390                       # number of WriteReq MSHR miss cycles
system.cpu.dcache.WriteReq_mshr_miss_rate::.cpu.data     0.002563                       # mshr miss rate for WriteReq accesses
system.cpu.dcache.WriteReq_mshr_miss_rate::total     0.002563                       # mshr miss rate for WriteReq accesses
system.cpu.dcache.WriteReq_avg_mshr_miss_latency::.cpu.data 60333.420647                       # average WriteReq mshr miss latency
system.cpu.dcache.WriteReq_avg_mshr_miss_latency::total 60333.420647                       # average WriteReq mshr miss latency
system.cpu.dcache.tags.pwrStateResidencyTicks::UNDEFINED  14457607710                       # Cumulative time (in ticks) in various power states
system.cpu.dcache.tags.tagsinuse          1016.385425                       # Cycle average of tags in use
system.cpu.dcache.tags.total_refs             1009679                       # Total number of references to valid blocks.
system.cpu.dcache.tags.sampled_refs              3948                       # Sample count of references to valid blocks.
system.cpu.dcache.tags.avg_refs            255.744428                       # Average number of references to valid blocks.
system.cpu.dcache.tags.warmup_cycle            159705                       # Cycle when the warmup percentage was hit.
system.cpu.dcache.tags.occ_blocks::.cpu.data  1016.385425                       # Average occupied blocks per requestor
system.cpu.dcache.tags.occ_percent::.cpu.data     0.992564                       # Average percentage of cache occupancy
system.cpu.dcache.tags.occ_percent::total     0.992564                       # Average percentage of cache occupancy
system.cpu.dcache.tags.occ_task_id_blocks::1024         1024                       # Occupied blocks per task id
system.cpu.dcache.tags.age_task_id_blocks_1024::0           39                       # Occupied blocks per task id
system.cpu.dcache.tags.age_task_id_blocks_1024::1           71                       # Occupied blocks per task id
system.cpu.dcache.tags.age_task_id_blocks_1024::2           71                       # Occupied blocks per task id
system.cpu.dcache.tags.age_task_id_blocks_1024::4          843                       # Occupied blocks per task id
system.cpu.dcache.tags.occ_task_id_percent::1024            1                       # Percentage of cache occupancy per task id
system.cpu.dcache.tags.tag_accesses           2023306                       # Number of tag accesses
system.cpu.dcache.tags.data_accesses          2023306                       # Number of data accesses
system.l2cache.pwrStateResidencyTicks::UNDEFINED  14457607710                       # Cumulative time (in ticks) in various power states
system.l2cache.demand_hits::.cpu.inst             144                       # number of demand (read+write) hits
system.l2cache.demand_hits::.cpu.data             752                       # number of demand (read+write) hits
system.l2cache.demand_hits::total                 896                       # number of demand (read+write) hits
system.l2cache.overall_hits::.cpu.inst            144                       # number of overall hits
system.l2cache.overall_hits::.cpu.data            752                       # number of overall hits
system.l2cache.overall_hits::total                896                       # number of overall hits
system.l2cache.demand_misses::.cpu.inst          1494                       # number of demand (read+write) misses
system.l2cache.demand_misses::.cpu.data          3196                       # number of demand (read+write) misses
system.l2cache.demand_misses::total              4690                       # number of demand (read+write) misses
system.l2cache.overall_misses::.cpu.inst         1494                       # number of overall misses
system.l2cache.overall_misses::.cpu.data         3196                       # number of overall misses
system.l2cache.overall_misses::total             4690                       # number of overall misses
system.l2cache.demand_miss_latency::.cpu.inst    102229400                       # number of demand (read+write) miss cycles
system.l2cache.demand_miss_latency::.cpu.data    234191685                       # number of demand (read+write) miss cycles
system.l2cache.demand_miss_latency::total    336421085                       # number of demand (read+write) miss cycles
system.l2cache.overall_miss_latency::.cpu.inst    102229400                       # number of overall miss cycles
system.l2cache.overall_miss_latency::.cpu.data    234191685                       # number of overall miss cycles
system.l2cache.overall_miss_latency::total    336421085                       # number of overall miss cycles
system.l2cache.demand_accesses::.cpu.inst         1638                       # number of demand (read+write) accesses
system.l2cache.demand_accesses::.cpu.data         3948                       # number of demand (read+write) accesses
system.l2cache.demand_accesses::total            5586                       # number of demand (read+write) accesses
system.l2cache.overall_accesses::.cpu.inst         1638                       # number of overall (read+write) accesses
system.l2cache.overall_accesses::.cpu.data         3948                       # number of overall (read+write) accesses
system.l2cache.overall_accesses::total           5586                       # number of overall (read+write) accesses
system.l2cache.demand_miss_rate::.cpu.inst     0.912088                       # miss rate for demand accesses
system.l2cache.demand_miss_rate::.cpu.data     0.809524                       # miss rate for demand accesses
system.l2cache.demand_miss_rate::total       0.839599                       # miss rate for demand accesses
system.l2cache.overall_miss_rate::.cpu.inst     0.912088                       # miss rate for overall accesses
system.l2cache.overall_miss_rate::.cpu.data     0.809524                       # miss rate for overall accesses
system.l2cache.overall_miss_rate::total      0.839599                       # miss rate for overall accesses
system.l2cache.demand_avg_miss_latency::.cpu.inst 68426.639893                       # average overall miss latency
system.l2cache.demand_avg_miss_latency::.cpu.data 73276.497184                       # average overall miss latency
system.l2cache.demand_avg_miss_latency::total 71731.574627                       # average overall miss latency
system.l2cache.overall_avg_miss_latency::.cpu.inst 68426.639893                       # average overall miss latency
system.l2cache.overall_avg_miss_latency::.cpu.data 73276.497184                       # average overall miss latency
system.l2cache.overall_avg_miss_latency::total 71731.574627                       # average overall miss latency
system.l2cache.blocked_cycles::no_mshrs             0                       # number of cycles access was blocked
system.l2cache.blocked_cycles::no_targets            0                       # number of cycles access was blocked
system.l2cache.blocked::no_mshrs                    0                       # number of cycles access was blocked
system.l2cache.blocked::no_targets                  0                       # number of cycles access was blocked
system.l2cache.avg_blocked_cycles::no_mshrs          nan                       # average number of cycles each access was blocked
system.l2cache.avg_blocked_cycles::no_targets          nan                       # average number of cycles each access was blocked
system.l2cache.writebacks::.writebacks              2                       # number of writebacks
system.l2cache.writebacks::total                    2                       # number of writebacks
system.l2cache.demand_mshr_misses::.cpu.inst         1494                       # number of demand (read+write) MSHR misses
system.l2cache.demand_mshr_misses::.cpu.data         3196                       # number of demand (read+write) MSHR misses
system.l2cache.demand_mshr_misses::total         4690                       # number of demand (read+write) MSHR misses
system.l2cache.overall_mshr_misses::.cpu.inst         1494                       # number of overall MSHR misses
system.l2cache.overall_mshr_misses::.cpu.data         3196                       # number of overall MSHR misses
system.l2cache.overall_mshr_misses::total         4690                       # number of overall MSHR misses
system.l2cache.demand_mshr_miss_latency::.cpu.inst     88634000                       # number of demand (read+write) MSHR miss cycles
system.l2cache.demand_mshr_miss_latency::.cpu.data    205108085                       # number of demand (read+write) MSHR miss cycles
system.l2cache.demand_mshr_miss_latency::total    293742085                       # number of demand (read+write) MSHR miss cycles
system.l2cache.overall_mshr_miss_latency::.cpu.inst     88634000                       # number of overall MSHR miss cycles
system.l2cache.overall_mshr_miss_latency::.cpu.data    205108085                       # number of overall MSHR miss cycles
system.l2cache.overall_mshr_miss_latency::total    293742085                       # number of overall MSHR miss cycles
system.l2cache.demand_mshr_miss_rate::.cpu.inst     0.912088                       # mshr miss rate for demand accesses
system.l2cache.demand_mshr_miss_rate::.cpu.data     0.809524                       # mshr miss rate for demand accesses
system.l2cache.demand_mshr_miss_rate::total     0.839599                       # mshr miss rate for demand accesses
system.l2cache.overall_mshr_miss_rate::.cpu.inst     0.912088                       # mshr miss rate for overall accesses
system.l2cache.overall_mshr_miss_rate::.cpu.data     0.809524                       # mshr miss rate for overall accesses
system.l2cache.overall_mshr_miss_rate::total     0.839599                       # mshr miss rate for overall accesses
system.l2cache.demand_avg_mshr_miss_latency::.cpu.inst 59326.639893                       # average overall mshr miss latency
system.l2cache.demand_avg_mshr_miss_latency::.cpu.data 64176.497184                       # average overall mshr miss latency
system.l2cache.demand_avg_mshr_miss_latency::total 62631.574627                       # average overall mshr miss latency
system.l2cache.overall_avg_mshr_miss_latency::.cpu.inst 59326.639893                       # average overall mshr miss latency
system.l2cache.overall_avg_mshr_miss_latency::.cpu.data 64176.497184                       # average overall mshr miss latency
system.l2cache.overall_avg_mshr_miss_latency::total 62631.574627                       # average overall mshr miss latency
system.l2cache.replacements                        16                       # number of replacements
system.l2cache.WritebackDirty_hits::.writebacks          834                       # number of WritebackDirty hits
system.l2cache.WritebackDirty_hits::total          834                       # number of WritebackDirty hits
system.l2cache.WritebackDirty_accesses::.writebacks          834                       # number of WritebackDirty accesses(hits+misses)
system.l2cache.WritebackDirty_accesses::total          834                       # number of WritebackDirty accesses(hits+misses)
system.l2cache.CleanEvict_mshr_misses::.writebacks            4                       # number of CleanEvict MSHR misses
system.l2cache.CleanEvict_mshr_misses::total            4                       # number of CleanEvict MSHR misses
system.l2cache.CleanEvict_mshr_miss_rate::.writebacks          inf                       # mshr miss rate for CleanEvict accesses
system.l2cache.CleanEvict_mshr_miss_rate::total          inf                       # mshr miss rate for CleanEvict accesses
system.l2cache.ReadExReq_hits::.cpu.data           91                       # number of ReadExReq hits
system.l2cache.ReadExReq_hits::total               91                       # number of ReadExReq hits
system.l2cache.ReadExReq_misses::.cpu.data          558                       # number of ReadExReq misses
system.l2cache.ReadExReq_misses::total            558                       # number of ReadExReq misses
system.l2cache.ReadExReq_miss_latency::.cpu.data     37389170                       # number of ReadExReq miss cycles
system.l2cache.ReadExReq_miss_latency::total     37389170                       # number of ReadExReq miss cycles
system.l2cache.ReadExReq_accesses::.cpu.data          649                       # number of ReadExReq accesses(hits+misses)
system.l2cache.ReadExReq_accesses::total          649                       # number of ReadExReq accesses(hits+misses)
system.l2cache.ReadExReq_miss_rate::.cpu.data     0.859784                       # miss rate for ReadExReq accesses
system.l2cache.ReadExReq_miss_rate::total     0.859784                       # miss rate for ReadExReq accesses
system.l2cache.ReadExReq_avg_miss_latency::.cpu.data 67005.681004                       # average ReadExReq miss latency
system.l2cache.ReadExReq_avg_miss_latency::total 67005.681004                       # average ReadExReq miss latency
system.l2cache.ReadExReq_mshr_misses::.cpu.data          558                       # number of ReadExReq MSHR misses
system.l2cache.ReadExReq_mshr_misses::total          558                       # number of ReadExReq MSHR misses
system.l2cache.ReadExReq_mshr_miss_latency::.cpu.data     32311370                       # number of ReadExReq MSHR miss cycles
system.l2cache.ReadExReq_mshr_miss_latency::total     32311370                       # number of ReadExReq MSHR miss cycles
system.l2cache.ReadExReq_mshr_miss_rate::.cpu.data     0.859784                       # mshr miss rate for ReadExReq accesses
system.l2cache.ReadExReq_mshr_miss_rate::total     0.859784                       # mshr miss rate for ReadExReq accesses
system.l2cache.ReadExReq_avg_mshr_miss_latency::.cpu.data 57905.681004                       # average ReadExReq mshr miss latency
system.l2cache.ReadExReq_avg_mshr_miss_latency::total 57905.681004                       # average ReadExReq mshr miss latency
system.l2cache.ReadSharedReq_hits::.cpu.inst          144                       # number of ReadSharedReq hits
system.l2cache.ReadSharedReq_hits::.cpu.data          661                       # number of ReadSharedReq hits
system.l2cache.ReadSharedReq_hits::total          805                       # number of ReadSharedReq hits
system.l2cache.ReadSharedReq_misses::.cpu.inst         1494                       # number of ReadSharedReq misses
system.l2cache.ReadSharedReq_misses::.cpu.data         2638                       # number of ReadSharedReq misses
system.l2cache.ReadSharedReq_misses::total         4132                       # number of ReadSharedReq misses
system.l2cache.ReadSharedReq_miss_latency::.cpu.inst    102229400                       # number of ReadSharedReq miss cycles
system.l2cache.ReadSharedReq_miss_latency::.cpu.data    196802515                       # number of ReadSharedReq miss cycles
system.l2cache.ReadSharedReq_miss_latency::total    299031915                       # number of ReadSharedReq miss cycles
system.l2cache.ReadSharedReq_accesses::.cpu.inst         1638                       # number of ReadSharedReq accesses(hits+misses)
system.l2cache.ReadSharedReq_accesses::.cpu.data         3299                       # number of ReadSharedReq accesses(hits+misses)
system.l2cache.ReadSharedReq_accesses::total         4937                       # number of ReadSharedReq accesses(hits+misses)
system.l2cache.ReadSharedReq_miss_rate::.cpu.inst     0.912088                       # miss rate for ReadSharedReq accesses
system.l2cache.ReadSharedReq_miss_rate::.cpu.data     0.799636                       # miss rate for ReadSharedReq accesses
system.l2cache.ReadSharedReq_miss_rate::total     0.836946                       # miss rate for ReadSharedReq accesses
system.l2cache.ReadSharedReq_avg_miss_latency::.cpu.inst 68426.639893                       # average ReadSharedReq miss latency
system.l2cache.ReadSharedReq_avg_miss_latency::.cpu.data 74602.924564                       # average ReadSharedReq miss latency
system.l2cache.ReadSharedReq_avg_miss_latency::total 72369.776137                       # average ReadSharedReq miss latency
system.l2cache.ReadSharedReq_mshr_misses::.cpu.inst         1494                       # number of ReadSharedReq MSHR misses
system.l2cache.ReadSharedReq_mshr_misses::.cpu.data         2638                       # number of ReadSharedReq MSHR misses
system.l2cache.ReadSharedReq_mshr_misses::total         4132                       # number of ReadSharedReq MSHR misses
system.l2cache.ReadSharedReq_mshr_miss_latency::.cpu.inst     88634000                       # number of ReadSharedReq MSHR miss cycles
system.l2cache.ReadSharedReq_mshr_miss_latency::.cpu.data    172796715                       # number of ReadSharedReq MSHR miss cycles
system.l2cache.ReadSharedReq_mshr_miss_latency::total    261430715                       # number of ReadSharedReq MSHR miss cycles
system.l2cache.ReadSharedReq_mshr_miss_rate::.cpu.inst     0.912088                       # mshr miss rate for ReadSharedReq accesses
system.l2cache.ReadSharedReq_mshr_miss_rate::.cpu.data     0.799636                       # mshr miss rate for ReadSharedReq accesses
system.l2cache.ReadSharedReq_mshr_miss_rate::total     0.836946                       # mshr miss rate for ReadSharedReq accesses
system.l2cache.ReadSharedReq_avg_mshr_miss_latency::.cpu.inst 59326.639893                       # average ReadSharedReq mshr miss latency
system.l2cache.ReadSharedReq_avg_mshr_miss_latency::.cpu.data 65502.924564                       # average ReadSharedReq mshr miss latency
system.l2cache.ReadSharedReq_avg_mshr_miss_latency::total 63269.776137                       # average ReadSharedReq mshr miss latency
system.l2cache.tags.pwrStateResidencyTicks::UNDEFINED  14457607710                       # Cumulative time (in ticks) in various power states
system.l2cache.tags.tagsinuse             4265.252945                       # Cycle average of tags in use
system.l2cache.tags.total_refs                   9214                       # Total number of references to valid blocks.
system.l2cache.tags.sampled_refs                 4690                       # Sample count of references to valid blocks.
system.l2cache.tags.avg_refs                 1.964606                       # Average number of references to valid blocks.
system.l2cache.tags.warmup_cycle                70980                       # Cycle when the warmup percentage was hit.
system.l2cache.tags.occ_blocks::.cpu.inst  1188.158596                       # Average occupied blocks per requestor
system.l2cache.tags.occ_blocks::.cpu.data  3077.094349                       # Average occupied blocks per requestor
system.l2cache.tags.occ_percent::.cpu.inst     0.145039                       # Average percentage of cache occupancy
system.l2cache.tags.occ_percent::.cpu.data     0.375622                       # Average percentage of cache occupancy
system.l2cache.tags.occ_percent::total       0.520661                       # Average percentage of cache occupancy
system.l2cache.tags.occ_task_id_blocks::1024         4674                       # Occupied blocks per task id
system.l2cache.tags.age_task_id_blocks_1024::0           70                       # Occupied blocks per task id
system.l2cache.tags.age_task_id_blocks_1024::1          165                       # Occupied blocks per task id
system.l2cache.tags.age_task_id_blocks_1024::2           75                       # Occupied blocks per task id
system.l2cache.tags.age_task_id_blocks_1024::4         4364                       # Occupied blocks per task id
system.l2cache.tags.occ_task_id_percent::1024     0.570557                       # Percentage of cache occupancy per task id
system.l2cache.tags.tag_accesses                78434                       # Number of tag accesses
system.l2cache.tags.data_accesses               78434                       # Number of data accesses
system.mem_ctrl.pwrStateResidencyTicks::UNDEFINED  14457607710                       # Cumulative time (in ticks) in various power states
system.mem_ctrl.bytes_read::.cpu.inst           95616                       # Number of bytes read from this memory
system.mem_ctrl.bytes_read::.cpu.data          204544                       # Number of bytes read from this memory
system.mem_ctrl.bytes_read::total              300160                       # Number of bytes read from this memory
system.mem_ctrl.bytes_inst_read::.cpu.inst        95616                       # Number of instructions bytes read from this memory
system.mem_ctrl.bytes_inst_read::total          95616                       # Number of instructions bytes read from this memory
system.mem_ctrl.bytes_written::.writebacks          128                       # Number of bytes written to this memory
system.mem_ctrl.bytes_written::total              128                       # Number of bytes written to this memory
system.mem_ctrl.num_reads::.cpu.inst             1494                       # Number of read requests responded to by this memory
system.mem_ctrl.num_reads::.cpu.data             3196                       # Number of read requests responded to by this memory
system.mem_ctrl.num_reads::total                 4690                       # Number of read requests responded to by this memory
system.mem_ctrl.num_writes::.writebacks             2                       # Number of write requests responded to by this memory
system.mem_ctrl.num_writes::total                   2                       # Number of write requests responded to by this memory
system.mem_ctrl.bw_read::.cpu.inst            6613542                       # Total read bandwidth from this memory (bytes/s)
system.mem_ctrl.bw_read::.cpu.data           14147845                       # Total read bandwidth from this memory (bytes/s)
system.mem_ctrl.bw_read::total               20761388                       # Total read bandwidth from this memory (bytes/s)
system.mem_ctrl.bw_inst_read::.cpu.inst       6613542                       # Instruction read bandwidth from this memory (bytes/s)
system.mem_ctrl.bw_inst_read::total           6613542                       # Instruction read bandwidth from this memory (bytes/s)
system.mem_ctrl.bw_write::.writebacks            8853                       # Write bandwidth from this memory (bytes/s)
system.mem_ctrl.bw_write::total                  8853                       # Write bandwidth from this memory (bytes/s)
system.mem_ctrl.bw_total::.writebacks            8853                       # Total bandwidth to/from this memory (bytes/s)
system.mem_ctrl.bw_total::.cpu.inst           6613542                       # Total bandwidth to/from this memory (bytes/s)
system.mem_ctrl.bw_total::.cpu.data          14147845                       # Total bandwidth to/from this memory (bytes/s)
system.mem_ctrl.bw_total::total              20770241                       # Total bandwidth to/from this memory (bytes/s)
system.mem_ctrl.avgPriority_.writebacks::samples         2.00                       # Average QoS priority value for accepted requests
system.mem_ctrl.avgPriority_.cpu.inst::samples      1494.00                       # Average QoS priority value for accepted requests
system.mem_ctrl.avgPriority_.cpu.data::samples      3196.00                       # Average QoS priority value for accepted requests
system.mem_ctrl.priorityMinLatency       0.000000018750                       # per QoS priority minimum request to response latency (s)
system.mem_ctrl.priorityMaxLatency       0.000000577700                       # per QoS priority maximum request to response latency (s)
system.mem_ctrl.numReadWriteTurnArounds             0                       # Number of turnarounds from READ to WRITE
system.mem_ctrl.numWriteReadTurnArounds             0                       # Number of turnarounds from WRITE to READ
system.mem_ctrl.numStayReadState                13094                       # Number of times bus staying in READ state
system.mem_ctrl.numStayWriteState                   0                       # Number of times bus staying in WRITE state
system.mem_ctrl.readReqs                         4690                       # Number of read requests accepted
system.mem_ctrl.writeReqs                           2                       # Number of write requests accepted
system.mem_ctrl.readBursts                       4690                       # Number of DRAM read bursts, including those serviced by the write queue
system.mem_ctrl.writeBursts                         2                       # Number of DRAM write bursts, including those merged in the write queue
system.mem_ctrl.servicedByWrQ                       0                       # Number of DRAM read bursts serviced by the write queue
system.mem_ctrl.mergedWrBursts                      0                       # Number of DRAM write bursts merged with an existing one
system.mem_ctrl.neitherReadNorWriteReqs             0                       # Number of requests that are neither read nor write
system.mem_ctrl.perBankRdBursts::0                528                       # Per bank write bursts
system.mem_ctrl.perBankRdBursts::1                434                       # Per bank write bursts
system.mem_ctrl.perBankRdBursts::2                403                       # Per bank write bursts
system.mem_ctrl.perBankRdBursts::3                437                       # Per bank write bursts
system.mem_ctrl.perBankRdBursts::4                251                       # Per bank write bursts
system.mem_ctrl.perBankRdBursts::5                184                       # Per bank write bursts
system.mem_ctrl.perBankRdBursts::6                197                       # Per bank write bursts
system.mem_ctrl.perBankRdBursts::7                207                       # Per bank write bursts
system.mem_ctrl.perBankRdBursts::8                267                       # Per bank write bursts
system.mem_ctrl.perBankRdBursts::9                136                       # Per bank write bursts
system.mem_ctrl.perBankRdBursts::10               124                       # Per bank write bursts
system.mem_ctrl.perBankRdBursts::11               209                       # Per bank write bursts
system.mem_ctrl.perBankRdBursts::12               322                       # Per bank write bursts
system.mem_ctrl.perBankRdBursts::13               469                       # Per bank write bursts
system.mem_ctrl.perBankRdBursts::14               262                       # Per bank write bursts
system.mem_ctrl.perBankRdBursts::15               260                       # Per bank write bursts
system.mem_ctrl.perBankWrBursts::0                  0                       # Per bank write bursts
system.mem_ctrl.perBankWrBursts::1                  0                       # Per bank write bursts
system.mem_ctrl.perBankWrBursts::2                  0                       # Per bank write bursts
system.mem_ctrl.perBankWrBursts::3                  0                       # Per bank write bursts
system.mem_ctrl.perBankWrBursts::4                  0                       # Per bank write bursts
system.mem_ctrl.perBankWrBursts::5                  0                       # Per bank write bursts
system.mem_ctrl.perBankWrBursts::6                  0                       # Per bank write bursts
system.mem_ctrl.perBankWrBursts::7                  0                       # Per bank write bursts
system.mem_ctrl.perBankWrBursts::8                  0                       # Per bank write bursts
system.mem_ctrl.perBankWrBursts::9                  0                       # Per bank write bursts
system.mem_ctrl.perBankWrBursts::10                 0                       # Per bank write bursts
system.mem_ctrl.perBankWrBursts::11                 0                       # Per bank write bursts
system.mem_ctrl.perBankWrBursts::12                 0                       # Per bank write bursts
system.mem_ctrl.perBankWrBursts::13                 0                       # Per bank write bursts
system.mem_ctrl.perBankWrBursts::14                 0                       # Per bank write bursts
system.mem_ctrl.perBankWrBursts::15                 0                       # Per bank write bursts
system.mem_ctrl.avgRdQLen                        1.00                       # Average read queue length when enqueuing
system.mem_ctrl.avgWrQLen                        0.00                       # Average write queue length when enqueuing
system.mem_ctrl.totQLat                      44201335                       # Total ticks spent queuing
system.mem_ctrl.totBusLat                    23450000                       # Total ticks spent in databus transfers
system.mem_ctrl.totMemAccLat                132138835                       # Total ticks spent from burst creation until serviced by the DRAM
system.mem_ctrl.avgQLat                       9424.59                       # Average queueing delay per DRAM burst
system.mem_ctrl.avgBusLat                     5000.00                       # Average bus latency per DRAM burst
system.mem_ctrl.avgMemAccLat                 28174.59                       # Average memory access latency per DRAM burst
system.mem_ctrl.numRdRetry                          0                       # Number of times read queue was full causing retry
system.mem_ctrl.numWrRetry                          0                       # Number of times write queue was full causing retry
system.mem_ctrl.readRowHits                      3668                       # Number of row buffer hits during reads
system.mem_ctrl.writeRowHits                        0                       # Number of row buffer hits during writes
system.mem_ctrl.readRowHitRate                  78.21                       # Row buffer hit rate for reads
system.mem_ctrl.writeRowHitRate                  0.00                       # Row buffer hit rate for writes
system.mem_ctrl.readPktSize::0                      0                       # Read request sizes (log2)
system.mem_ctrl.readPktSize::1                      0                       # Read request sizes (log2)
system.mem_ctrl.readPktSize::2                      0                       # Read request sizes (log2)
system.mem_ctrl.readPktSize::3                      0                       # Read request sizes (log2)
system.mem_ctrl.readPktSize::4                      0                       # Read request sizes (log2)
system.mem_ctrl.readPktSize::5                      0                       # Read request sizes (log2)
system.mem_ctrl.readPktSize::6                   4690                       # Read request sizes (log2)
system.mem_ctrl.writePktSize::0                     0                       # Write request sizes (log2)
system.mem_ctrl.writePktSize::1                     0                       # Write request sizes (log2)
system.mem_ctrl.writePktSize::2                     0                       # Write request sizes (log2)
system.mem_ctrl.writePktSize::3                     0                       # Write request sizes (log2)
system.mem_ctrl.writePktSize::4                     0                       # Write request sizes (log2)
system.mem_ctrl.writePktSize::5                     0                       # Write request sizes (log2)
system.mem_ctrl.writePktSize::6                     2                       # Write request sizes (log2)
system.mem_ctrl.rdQLenPdf::0                     4689                       # What read queue length does an incoming req see
system.mem_ctrl.rdQLenPdf::1                        1                       # What read queue length does an incoming req see
system.mem_ctrl.rdQLenPdf::2                        0                       # What read queue length does an incoming req see
system.mem_ctrl.rdQLenPdf::3                        0                       # What read queue length does an incoming req see
system.mem_ctrl.rdQLenPdf::4                        0                       # What read queue length does an incoming req see
system.mem_ctrl.rdQLenPdf::5                        0                       # What read queue length does an incoming req see
system.mem_ctrl.rdQLenPdf::6                        0                       # What read queue length does an incoming req see
system.mem_ctrl.rdQLenPdf::7                        0                       # What read queue length does an incoming req see
system.mem_ctrl.rdQLenPdf::8                        0                       # What read queue length does an incoming req see
system.mem_ctrl.rdQLenPdf::9                        0                       # What read queue length does an incoming req see
system.mem_ctrl.rdQLenPdf::10                       0                       # What read queue length does an incoming req see
system.mem_ctrl.rdQLenPdf::11                       0                       # What read queue length does an incoming req see
system.mem_ctrl.rdQLenPdf::12                       0                       # What read queue length does an incoming req see
system.mem_ctrl.rdQLenPdf::13                       0                       # What read queue length does an incoming req see
system.mem_ctrl.rdQLenPdf::14                       0                       # What read queue length does an incoming req see
system.mem_ctrl.rdQLenPdf::15                       0                       # What read queue length does an incoming req see
system.mem_ctrl.rdQLenPdf::16                       0                       # What read queue length does an incoming req see
system.mem_ctrl.rdQLenPdf::17                       0                       # What read queue length does an incoming req see
system.mem_ctrl.rdQLenPdf::18                       0                       # What read queue length does an incoming req see
system.mem_ctrl.rdQLenPdf::19                       0                       # What read queue length does an incoming req see
system.mem_ctrl.rdQLenPdf::20                       0                       # What read queue length does an incoming req see
system.mem_ctrl.rdQLenPdf::21                       0                       # What read queue length does an incoming req see
system.mem_ctrl.rdQLenPdf::22                       0                       # What read queue length does an incoming req see
system.mem_ctrl.rdQLenPdf::23                       0                       # What read queue length does an incoming req see
system.mem_ctrl.rdQLenPdf::24                       0                       # What read queue length does an incoming req see
system.mem_ctrl.rdQLenPdf::25                       0                       # What read queue length does an incoming req see
system.mem_ctrl.rdQLenPdf::26                       0                       # What read queue length does an incoming req see
system.mem_ctrl.rdQLenPdf::27                       0                       # What read queue length does an incoming req see
system.mem_ctrl.rdQLenPdf::28                       0                       # What read queue length does an incoming req see
system.mem_ctrl.rdQLenPdf::29                       0                       # What read queue length does an incoming req see
system.mem_ctrl.rdQLenPdf::30                       0                       # What read queue length does an incoming req see
system.mem_ctrl.rdQLenPdf::31                       0                       # What read queue length does an incoming req see
system.mem_ctrl.wrQLenPdf::0                        1                       # What write queue length does an incoming req see
system.mem_ctrl.wrQLenPdf::1                        1                       # What write queue length does an incoming req see
system.mem_ctrl.wrQLenPdf::2                        0                       # What write queue length does an incoming req see
system.mem_ctrl.wrQLenPdf::3                        0                       # What write queue length does an incoming req see
system.mem_ctrl.wrQLenPdf::4                        0                       # What write queue length does an incoming req see
system.mem_ctrl.wrQLenPdf::5                        0                       # What write queue length does an incoming req see
system.mem_ctrl.wrQLenPdf::6                        0                       # What write queue length does an incoming req see
system.mem_ctrl.wrQLenPdf::7                        0                       # What write queue length does an incoming req see
system.mem_ctrl.wrQLenPdf::8                        0                       # What write queue length does an incoming req see
system.mem_ctrl.wrQLenPdf::9                        0                       # What write queue length does an incoming req see
system.mem_ctrl.wrQLenPdf::10                       0                       # What write queue length does an incoming req see
system.mem_ctrl.wrQLenPdf::11                       0                       # What write queue length does an incoming req see
system.mem_ctrl.wrQLenPdf::12                       0                       # What write queue length does an incoming req see
system.mem_ctrl.wrQLenPdf::13                       0                       # What write queue length does an incoming req see
system.mem_ctrl.wrQLenPdf::14                       0                       # What write queue length does an incoming req see
system.mem_ctrl.wrQLenPdf::15                       0                       # What write queue length does an incoming req see
system.mem_ctrl.wrQLenPdf::16                       0                       # What write queue length does an incoming req see
system.mem_ctrl.wrQLenPdf::17                       0                       # What write queue length does an incoming req see
system.mem_ctrl.wrQLenPdf::18                       0                       # What write queue length does an incoming req see
system.mem_ctrl.wrQLenPdf::19                       0                       # What write queue length does an incoming req see
system.mem_ctrl.wrQLenPdf::20                       0                       # What write queue length does an incoming req see
system.mem_ctrl.wrQLenPdf::21                       0                       # What write queue length does an incoming req see
system.mem_ctrl.wrQLenPdf::22                       0                       # What write queue length does an incoming req see
system.mem_ctrl.wrQLenPdf::23                       0                       # What write queue length does an incoming req see
system.mem_ctrl.wrQLenPdf::24                       0                       # What write queue length does an incoming req see
system.mem_ctrl.wrQLenPdf::25                       0                       # What write queue length does an incoming req see
system.mem_ctrl.wrQLenPdf::26                       0                       # What write queue length does an incoming req see
system.mem_ctrl.wrQLenPdf::27                       0                       # What write queue length does an incoming req see
system.mem_ctrl.wrQLenPdf::28                       0                       # What write queue length does an incoming req see
system.mem_ctrl.wrQLenPdf::29                       0                       # What write queue length does an incoming req see
system.mem_ctrl.wrQLenPdf::30                       0                       # What write queue length does an incoming req see
system.mem_ctrl.wrQLenPdf::31                       0                       # What write queue length does an incoming req see
system.mem_ctrl.wrQLenPdf::32                       0                       # What write queue length does an incoming req see
system.mem_ctrl.wrQLenPdf::33                       0                       # What write queue length does an incoming req see
system.mem_ctrl.wrQLenPdf::34                       0                       # What write queue length does an incoming req see
system.mem_ctrl.wrQLenPdf::35                       0                       # What write queue length does an incoming req see
system.mem_ctrl.wrQLenPdf::36                       0                       # What write queue length does an incoming req see
system.mem_ctrl.wrQLenPdf::37                       0                       # What write queue length does an incoming req see
system.mem_ctrl.wrQLenPdf::38                       0                       # What write queue length does an incoming req see
system.mem_ctrl.wrQLenPdf::39                       0                       # What write queue length does an incoming req see
system.mem_ctrl.wrQLenPdf::40                       0                       # What write queue length does an incoming req see
system.mem_ctrl.wrQLenPdf::41                       0                       # What write queue length does an incoming req see
system.mem_ctrl.wrQLenPdf::42                       0                       # What write queue length does an incoming req see
system.mem_ctrl.wrQLenPdf::43                       0                       # What write queue length does an incoming req see
system.mem_ctrl.wrQLenPdf::44                       0                       # What write queue length does an incoming req see
system.mem_ctrl.wrQLenPdf::45                       0                       # What write queue length does an incoming req see
system.mem_ctrl.wrQLenPdf::46                       0                       # What write queue length does an incoming req see
system.mem_ctrl.wrQLenPdf::47                       0                       # What write queue length does an incoming req see
system.mem_ctrl.wrQLenPdf::48                       0                       # What write queue length does an incoming req see
system.mem_ctrl.wrQLenPdf::49                       0                       # What write queue length does an incoming req see
system.mem_ctrl.wrQLenPdf::50                       0                       # What write queue length does an incoming req see
system.mem_ctrl.wrQLenPdf::51                       0                       # What write queue length does an incoming req see
system.mem_ctrl.wrQLenPdf::52                       0                       # What write queue length does an incoming req see
system.mem_ctrl.wrQLenPdf::53                       0                       # What write queue length does an incoming req see
system.mem_ctrl.wrQLenPdf::54                       0                       # What write queue length does an incoming req see
system.mem_ctrl.wrQLenPdf::55                       0                       # What write queue length does an incoming req see
system.mem_ctrl.wrQLenPdf::56                       0                       # What write queue length does an incoming req see
system.mem_ctrl.wrQLenPdf::57                       0                       # What write queue length does an incoming req see
system.mem_ctrl.wrQLenPdf::58                       0                       # What write queue length does an incoming req see
system.mem_ctrl.wrQLenPdf::59                       0                       # What write queue length does an incoming req see
system.mem_ctrl.wrQLenPdf::60                       0                       # What write queue length does an incoming req see
system.mem_ctrl.wrQLenPdf::61                       0                       # What write queue length does an incoming req see
system.mem_ctrl.wrQLenPdf::62                       0                       # What write queue length does an incoming req see
system.mem_ctrl.wrQLenPdf::63                       0                       # What write queue length does an incoming req see
system.mem_ctrl.bytesPerActivate::samples         1015                       # Bytes accessed per row activation
system.mem_ctrl.bytesPerActivate::mean     294.021675                       # Bytes accessed per row activation
system.mem_ctrl.bytesPerActivate::gmean    186.912869                       # Bytes accessed per row activation
system.mem_ctrl.bytesPerActivate::stdev    306.925088                       # Bytes accessed per row activation
system.mem_ctrl.bytesPerActivate::0-127           270     26.60%     26.60% # Bytes accessed per row activation
system.mem_ctrl.bytesPerActivate::128-255          343     33.79%     60.39% # Bytes accessed per row activation
system.mem_ctrl.bytesPerActivate::256-383          154     15.17%     75.57% # Bytes accessed per row activation
system.mem_ctrl.bytesPerActivate::384-511           54      5.32%     80.89% # Bytes accessed per row activation
system.mem_ctrl.bytesPerActivate::512-639           32      3.15%     84.04% # Bytes accessed per row activation
system.mem_ctrl.bytesPerActivate::640-767           22      2.17%     86.21% # Bytes accessed per row activation
system.mem_ctrl.bytesPerActivate::768-895           24      2.36%     88.57% # Bytes accessed per row activation
system.mem_ctrl.bytesPerActivate::896-1023            9      0.89%     89.46% # Bytes accessed per row activation
system.mem_ctrl.bytesPerActivate::1024-1151          107     10.54%    100.00% # Bytes accessed per row activation
system.mem_ctrl.bytesPerActivate::total          1015                       # Bytes accessed per row activation
system.mem_ctrl.bytesReadDRAM                  300160                       # Total number of bytes read from DRAM
system.mem_ctrl.bytesReadWrQ                        0                       # Total number of bytes read from write queue
system.mem_ctrl.bytesWritten                        0                       # Total number of bytes written to DRAM
system.mem_ctrl.bytesReadSys                   300160                       # Total read bytes from the system interface side
system.mem_ctrl.bytesWrittenSys                   128                       # Total written bytes from the system interface side
system.mem_ctrl.avgRdBW                         20.76                       # Average DRAM read bandwidth in MiByte/s
system.mem_ctrl.avgWrBW                          0.00                       # Average achieved write bandwidth in MiByte/s
system.mem_ctrl.avgRdBWSys                      20.76                       # Average system read bandwidth in MiByte/s
system.mem_ctrl.avgWrBWSys                       0.01                       # Average system write bandwidth in MiByte/s
system.mem_ctrl.peakBW                       12800.00                       # Theoretical peak bandwidth in MiByte/s
system.mem_ctrl.busUtil                          0.16                       # Data bus utilization in percentage
system.mem_ctrl.busUtilRead                      0.16                       # Data bus utilization in percentage for reads
system.mem_ctrl.busUtilWrite                     0.00                       # Data bus utilization in percentage for writes
system.mem_ctrl.totGap                    14457540370                       # Total gap between requests
system.mem_ctrl.avgGap                     3081317.21                       # Average gap between requests
system.mem_ctrl.masterReadBytes::.cpu.inst        95616                       # Per-master bytes read from memory
system.mem_ctrl.masterReadBytes::.cpu.data       204544                       # Per-master bytes read from memory
system.mem_ctrl.masterReadRate::.cpu.inst 6613542.289839872159                       # Per-master bytes read from memory rate (Bytes/sec)
system.mem_ctrl.masterReadRate::.cpu.data 14147845.487502163276                       # Per-master bytes read from memory rate (Bytes/sec)
system.mem_ctrl.masterReadAccesses::.cpu.inst         1494                       # Per-master read serviced memory accesses
system.mem_ctrl.masterReadAccesses::.cpu.data         3196                       # Per-master read serviced memory accesses
system.mem_ctrl.masterWriteAccesses::.writebacks            2                       # Per-master write serviced memory accesses
system.mem_ctrl.masterReadTotalLat::.cpu.inst     37154670                       # Per-master read total memory access latency
system.mem_ctrl.masterReadTotalLat::.cpu.data     94984165                       # Per-master read total memory access latency
system.mem_ctrl.masterReadAvgLat::.cpu.inst     24869.26                       # Per-master read average memory access latency
system.mem_ctrl.masterReadAvgLat::.cpu.data     29719.70                       # Per-master read average memory access latency
system.mem_ctrl.masterWriteAvgLat::.writebacks         0.00                       # Per-master write average memory access latency
system.mem_ctrl.pageHitRate                     78.18                       # Row buffer hit rate, read and write combined
system.mem_ctrl.rank1.actEnergy               2706060                       # Energy for activate commands per rank (pJ)
system.mem_ctrl.rank1.preEnergy               1423125                       # Energy for precharge commands per rank (pJ)
system.mem_ctrl.rank1.readEnergy             14629860                       # Energy for read commands per rank (pJ)
system.mem_ctrl.rank1.writeEnergy                   0                       # Energy for write commands per rank (pJ)
system.mem_ctrl.rank1.refreshEnergy      1140771840.000000                       # Energy for refresh commands per rank (pJ)
system.mem_ctrl.rank1.actBackEnergy         398883150                       # Energy for active background per rank (pJ)
system.mem_ctrl.rank1.preBackEnergy        5215820160                       # Energy for precharge background per rank (pJ)
system.mem_ctrl.rank1.actPowerDownEnergy            0                       # Energy for active power-down per rank (pJ)
system.mem_ctrl.rank1.prePowerDownEnergy            0                       # Energy for precharge power-down per rank (pJ)
system.mem_ctrl.rank1.selfRefreshEnergy             0                       # Energy for self refresh per rank (pJ)
system.mem_ctrl.rank1.totalEnergy          6774234195                       # Total energy per rank (pJ)
system.mem_ctrl.rank1.averagePower         468.558446                       # Core power per rank (mW)
system.mem_ctrl.rank1.totalIdleTime                 0                       # Total Idle time Per DRAM Rank
system.mem_ctrl.rank1.memoryStateTime::IDLE  13556232845                       # Time in different power states
system.mem_ctrl.rank1.memoryStateTime::REF    482560000                       # Time in different power states
system.mem_ctrl.rank1.memoryStateTime::SREF            0                       # Time in different power states
system.mem_ctrl.rank1.memoryStateTime::PRE_PDN            0                       # Time in different power states
system.mem_ctrl.rank1.memoryStateTime::ACT    418814865                       # Time in different power states
system.mem_ctrl.rank1.memoryStateTime::ACT_PDN            0                       # Time in different power states
system.mem_ctrl.rank0.actEnergy               4591020                       # Energy for activate commands per rank (pJ)
system.mem_ctrl.rank0.preEnergy               2428800                       # Energy for precharge commands per rank (pJ)
system.mem_ctrl.rank0.readEnergy             18856740                       # Energy for read commands per rank (pJ)
system.mem_ctrl.rank0.writeEnergy                   0                       # Energy for write commands per rank (pJ)
system.mem_ctrl.rank0.refreshEnergy      1140771840.000000                       # Energy for refresh commands per rank (pJ)
system.mem_ctrl.rank0.actBackEnergy         927015510                       # Energy for active background per rank (pJ)
system.mem_ctrl.rank0.preBackEnergy        4771077120                       # Energy for precharge background per rank (pJ)
system.mem_ctrl.rank0.actPowerDownEnergy            0                       # Energy for active power-down per rank (pJ)
system.mem_ctrl.rank0.prePowerDownEnergy            0                       # Energy for precharge power-down per rank (pJ)
system.mem_ctrl.rank0.selfRefreshEnergy             0                       # Energy for self refresh per rank (pJ)
system.mem_ctrl.rank0.totalEnergy          6864741030                       # Total energy per rank (pJ)
system.mem_ctrl.rank0.averagePower         474.818598                       # Core power per rank (mW)
system.mem_ctrl.rank0.totalIdleTime                 0                       # Total Idle time Per DRAM Rank
system.mem_ctrl.rank0.memoryStateTime::IDLE  12395185640                       # Time in different power states
system.mem_ctrl.rank0.memoryStateTime::REF    482560000                       # Time in different power states
system.mem_ctrl.rank0.memoryStateTime::SREF            0                       # Time in different power states
system.mem_ctrl.rank0.memoryStateTime::PRE_PDN            0                       # Time in different power states
system.mem_ctrl.rank0.memoryStateTime::ACT   1579862070                       # Time in different power states
system.mem_ctrl.rank0.memoryStateTime::ACT_PDN            0                       # Time in different power states

---------- End Simulation Statistics   ----------
